<?xml version="1.0" encoding="UTF-8"?>

<!-- generated on Fri 31 Jul 2020 05:51:18 PM CST by Eclipse SUMO netedit Version 1.6.0
<configuration xmlns:xsi="http://www.w3.org/2001/XMLSchema-instance" xsi:noNamespaceSchemaLocation="http://sumo.dlr.de/xsd/netconvertConfiguration.xsd">

    <input>
        <sumo-net-file value="/home/ming/Projects/Gitlab/smarts/dai/track2/dataset_public/ramp/2lane_on/map.net.xml"/>
    </input>

    <output>
        <output-file value="/home/ming/Projects/Gitlab/smarts/dai/track2/dataset_public/ramp/2lane_on/map.net.xml"/>
    </output>

    <processing>
        <geometry.min-radius.fix.railways value="false"/>
        <geometry.max-grade.fix value="false"/>
        <offset.disable-normalization value="true"/>
        <lefthand value="false"/>
    </processing>

    <junctions>
        <no-turnarounds value="true"/>
        <junctions.corner-detail value="5"/>
        <junctions.limit-turn-speed value="5.5"/>
        <rectangular-lane-cut value="false"/>
    </junctions>

    <pedestrian>
        <walkingareas value="false"/>
    </pedestrian>

    <report>
        <aggregate-warnings value="5"/>
    </report>

</configuration>
-->

<net version="1.6" junctionCornerDetail="5" limitTurnSpeed="5.50" xmlns:xsi="http://www.w3.org/2001/XMLSchema-instance" xsi:noNamespaceSchemaLocation="http://sumo.dlr.de/xsd/net_file.xsd">

    <location netOffset="0.00,0.00" convBoundary="-43.30,42.51,154.75,64.67" origBoundary="-10000000000.00,-10000000000.00,10000000000.00,10000000000.00" projParameter="!"/>

    <edge id=":gneJ1_0" function="internal">
        <lane id=":gneJ1_0_0" index="0" speed="50.00" length="22.73" shape="22.30,55.81 26.36,56.92 31.29,58.26 37.18,59.39 44.13,59.87"/>
        <lane id=":gneJ1_0_1" index="1" speed="50.00" length="22.73" shape="22.30,55.81 26.36,57.42 31.29,59.86 37.18,62.09 44.13,63.07"/>
    </edge>
    <edge id=":gneJ1_2" function="internal">
        <lane id=":gneJ1_2_0" index="0" speed="50.00" length="22.29" shape="21.84,59.87 44.13,59.87"/>
        <lane id=":gneJ1_2_1" index="1" speed="50.00" length="22.29" shape="21.84,63.07 44.13,63.07"/>
    </edge>

    <edge id="left_in" from="gneJ0" to="gneJ1" priority="-1">
        <lane id="left_in_0" index="0" speed="50.00" length="65.14" shape="-43.30,59.87 21.84,59.87"/>
        <lane id="left_in_1" index="1" speed="50.00" length="65.14" shape="-43.30,63.07 21.84,63.07"/>
    </edge>
    <edge id="merged" from="gneJ1" to="gneJ2" priority="-1">
        <lane id="merged_0" index="0" speed="50.00" length="110.62" shape="44.13,59.87 154.75,59.87"/>
        <lane id="merged_1" index="1" speed="50.00" length="110.62" shape="44.13,63.07 154.75,63.07"/>
    </edge>
    <edge id="ramp_in" from="gneJ3" to="gneJ1" priority="-1">
        <lane id="ramp_in_0" index="0" speed="50.00" length="66.37" shape="-42.38,40.95 22.30,55.81"/>
    </edge>

    <junction id="gneJ0" type="dead_end" x="-43.30" y="64.67" incLanes="" intLanes="" shape="-43.30,64.67 -43.30,58.27"/>
    <junction id="gneJ1" type="priority" x="53.69" y="64.67" incLanes="ramp_in_0 left_in_0 left_in_1" intLanes=":gneJ1_0_0 :gneJ1_0_1 :gneJ1_2_0 :gneJ1_2_1" shape="44.13,64.67 44.13,58.27 39.48,58.14 36.07,57.77 33.29,57.18 30.53,56.38 27.19,55.40 22.66,54.26 21.94,57.37 21.84,58.27 21.84,64.67">
        <request index="0" response="1100" foes="1100" cont="0"/>
        <request index="1" response="1100" foes="1100" cont="0"/>
        <request index="2" response="0000" foes="0011" cont="0"/>
        <request index="3" response="0000" foes="0011" cont="0"/>
    </junction>
    <junction id="gneJ2" type="dead_end" x="154.75" y="64.67" incLanes="merged_0 merged_1" intLanes="" shape="154.75,58.27 154.75,64.67"/>
    <junction id="gneJ3" type="dead_end" x="-42.74" y="42.51" incLanes="" intLanes="" shape="-42.74,42.51 -42.02,39.39"/>

    <connection from="left_in" to="merged" fromLane="0" toLane="0" via=":gneJ1_2_0" dir="s" state="M"/>
    <connection from="left_in" to="merged" fromLane="1" toLane="1" via=":gneJ1_2_1" dir="s" state="M"/>
    <connection from="ramp_in" to="merged" fromLane="0" toLane="0" via=":gneJ1_0_0" dir="s" state="m"/>
    <connection from="ramp_in" to="merged" fromLane="0" toLane="1" via=":gneJ1_0_1" dir="s" state="m"/>

    <connection from=":gneJ1_0" to="merged" fromLane="0" toLane="0" dir="s" state="M"/>
    <connection from=":gneJ1_0" to="merged" fromLane="1" toLane="1" dir="s" state="M"/>
    <connection from=":gneJ1_2" to="merged" fromLane="0" toLane="0" dir="s" state="M"/>
    <connection from=":gneJ1_2" to="merged" fromLane="1" toLane="1" dir="s" state="M"/>

</net>
