<?xml version="1.0" encoding="UTF-8"?>

<!-- generated on Fri 31 Jul 2020 03:31:52 PM CST by Eclipse SUMO netedit Version 1.6.0
<configuration xmlns:xsi="http://www.w3.org/2001/XMLSchema-instance" xsi:noNamespaceSchemaLocation="http://sumo.dlr.de/xsd/netconvertConfiguration.xsd">

    <input>
        <sumo-net-file value="/home/ming/Projects/Gitlab/smarts/dai/track2/dataset_public/roundabout/1lane_circle/map.net.xml"/>
    </input>

    <output>
        <output-file value="/home/ming/Projects/Gitlab/smarts/dai/track2/dataset_public/roundabout/1lane_circle/map.net.xml"/>
    </output>

    <processing>
        <geometry.min-radius.fix.railways value="false"/>
        <geometry.max-grade.fix value="false"/>
        <offset.disable-normalization value="true"/>
        <lefthand value="false"/>
    </processing>

    <junctions>
        <no-turnarounds value="true"/>
        <junctions.corner-detail value="5"/>
        <junctions.limit-turn-speed value="5.5"/>
        <rectangular-lane-cut value="false"/>
    </junctions>

    <pedestrian>
        <walkingareas value="false"/>
    </pedestrian>

    <report>
        <aggregate-warnings value="5"/>
    </report>

</configuration>
-->

<net version="1.6" junctionCornerDetail="5" limitTurnSpeed="5.50" xmlns:xsi="http://www.w3.org/2001/XMLSchema-instance" xsi:noNamespaceSchemaLocation="http://sumo.dlr.de/xsd/net_file.xsd">

    <location netOffset="-773483.17,-42354.99" convBoundary="0.00,0.00,148.84,140.63" origBoundary="-174.542980,0.382844,-174.541564,0.384115" projParameter="+proj=utm +zone=1 +ellps=WGS84 +datum=WGS84 +units=m +no_defs"/>

    <type id="highway.bridleway" priority="1" numLanes="1" speed="2.78" allow="pedestrian" oneway="1" width="2.00"/>
    <type id="highway.bus_guideway" priority="1" numLanes="1" speed="27.78" allow="bus" oneway="1"/>
    <type id="highway.cycleway" priority="1" numLanes="1" speed="8.33" allow="bicycle" oneway="0" width="1.00"/>
    <type id="highway.footway" priority="1" numLanes="1" speed="2.78" allow="pedestrian" oneway="1" width="2.00"/>
    <type id="highway.ford" priority="1" numLanes="1" speed="2.78" allow="army" oneway="0"/>
    <type id="highway.living_street" priority="2" numLanes="1" speed="2.78" disallow="tram rail_urban rail rail_electric ship" oneway="0"/>
    <type id="highway.motorway" priority="14" numLanes="2" speed="39.44" allow="private emergency authority army vip passenger hov taxi bus coach delivery truck trailer motorcycle evehicle custom1 custom2" oneway="1"/>
    <type id="highway.motorway_link" priority="9" numLanes="1" speed="22.22" allow="private emergency authority army vip passenger hov taxi bus coach delivery truck trailer motorcycle evehicle custom1 custom2" oneway="1"/>
    <type id="highway.path" priority="1" numLanes="1" speed="2.78" allow="pedestrian bicycle" oneway="1" width="2.00"/>
    <type id="highway.pedestrian" priority="1" numLanes="1" speed="2.78" allow="pedestrian" oneway="1" width="2.00"/>
    <type id="highway.primary" priority="12" numLanes="2" speed="27.78" disallow="tram rail_urban rail rail_electric ship" oneway="0"/>
    <type id="highway.primary_link" priority="7" numLanes="1" speed="22.22" disallow="tram rail_urban rail rail_electric ship" oneway="0"/>
    <type id="highway.raceway" priority="15" numLanes="2" speed="83.33" allow="vip" oneway="0"/>
    <type id="highway.residential" priority="3" numLanes="1" speed="13.89" disallow="tram rail_urban rail rail_electric ship" oneway="0"/>
    <type id="highway.secondary" priority="11" numLanes="2" speed="27.78" disallow="tram rail_urban rail rail_electric ship" oneway="0"/>
    <type id="highway.secondary_link" priority="6" numLanes="1" speed="22.22" disallow="tram rail_urban rail rail_electric ship" oneway="0"/>
    <type id="highway.service" priority="1" numLanes="1" speed="5.56" allow="pedestrian delivery bicycle" oneway="0"/>
    <type id="highway.stairs" priority="1" numLanes="1" speed="1.39" allow="pedestrian" oneway="1" width="2.00"/>
    <type id="highway.step" priority="1" numLanes="1" speed="1.39" allow="pedestrian" oneway="1" width="2.00"/>
    <type id="highway.steps" priority="1" numLanes="1" speed="1.39" allow="pedestrian" oneway="1" width="2.00"/>
    <type id="highway.tertiary" priority="10" numLanes="1" speed="22.22" disallow="tram rail_urban rail rail_electric ship" oneway="0"/>
    <type id="highway.tertiary_link" priority="5" numLanes="1" speed="22.22" disallow="tram rail_urban rail rail_electric ship" oneway="0"/>
    <type id="highway.track" priority="1" numLanes="1" speed="5.56" disallow="tram rail_urban rail rail_electric ship" oneway="0"/>
    <type id="highway.trunk" priority="13" numLanes="2" speed="27.78" disallow="pedestrian bicycle tram rail_urban rail rail_electric ship" oneway="0"/>
    <type id="highway.trunk_link" priority="8" numLanes="1" speed="22.22" disallow="pedestrian bicycle tram rail_urban rail rail_electric ship" oneway="0"/>
    <type id="highway.unclassified" priority="4" numLanes="1" speed="13.89" disallow="tram rail_urban rail rail_electric ship" oneway="0"/>
    <type id="highway.unsurfaced" priority="1" numLanes="1" speed="8.33" disallow="tram rail_urban rail rail_electric ship" oneway="0"/>
    <type id="railway.light_rail" priority="19" numLanes="1" speed="27.78" allow="rail_urban" oneway="1"/>
    <type id="railway.preserved" priority="16" numLanes="1" speed="27.78" allow="rail" oneway="1"/>
    <type id="railway.rail" priority="20" numLanes="1" speed="83.33" allow="rail rail_electric" oneway="1"/>
    <type id="railway.subway" priority="18" numLanes="1" speed="27.78" allow="rail_urban" oneway="1"/>
    <type id="railway.tram" priority="17" numLanes="1" speed="13.89" allow="tram" oneway="1"/>

    <edge id=":junction-intersection-east_0" function="internal">
        <lane id=":junction-intersection-east_0_0" index="0" disallow="tram rail_urban rail rail_electric rail_fast ship" speed="6.54" length="8.59" shape="129.29,73.47 126.98,73.79 125.27,74.75 124.15,76.36 123.63,78.63"/>
    </edge>
    <edge id=":junction-intersection-east_1" function="internal">
        <lane id=":junction-intersection-east_1_0" index="0" disallow="tram rail_urban rail rail_electric rail_fast ship" speed="6.52" length="8.57" shape="123.75,65.05 124.23,67.32 125.31,68.95 127.01,69.94 129.31,70.27"/>
    </edge>
    <edge id=":junction-intersection-east_2" function="internal">
        <lane id=":junction-intersection-east_2_0" index="0" disallow="tram rail_urban rail rail_electric rail_fast ship" speed="27.78" length="13.60" shape="123.75,65.05 123.93,68.57 123.97,71.84 123.88,75.11 123.63,78.63"/>
    </edge>
    <edge id=":junction-intersection-north_0" function="internal">
        <lane id=":junction-intersection-north_0_0" index="0" disallow="tram rail_urban rail rail_electric rail_fast ship" speed="6.91" length="9.08" shape="73.92,125.64 73.57,123.32 72.53,121.53 70.80,120.29 68.37,119.58"/>
    </edge>
    <edge id=":junction-intersection-north_1" function="internal">
        <lane id=":junction-intersection-north_1_0" index="0" disallow="tram rail_urban rail rail_electric rail_fast ship" speed="6.91" length="9.22" shape="82.69,119.47 80.25,120.15 78.51,121.40 77.47,123.24 77.12,125.64"/>
    </edge>
    <edge id=":junction-intersection-north_2" function="internal">
        <lane id=":junction-intersection-north_2_0" index="0" disallow="tram rail_urban rail rail_electric rail_fast ship" speed="27.78" length="14.38" shape="82.69,119.47 79.06,119.89 75.53,120.08 71.99,119.99 68.37,119.58"/>
    </edge>
    <edge id=":junction-intersection-south_0" function="internal">
        <lane id=":junction-intersection-south_0_0" index="0" disallow="tram rail_urban rail rail_electric rail_fast ship" speed="6.92" length="9.18" shape="77.40,17.26 77.72,19.65 78.75,21.47 80.48,22.75 82.90,23.46"/>
    </edge>
    <edge id=":junction-intersection-south_1" function="internal">
        <lane id=":junction-intersection-south_1_0" index="0" disallow="tram rail_urban rail rail_electric rail_fast ship" speed="6.90" length="9.13" shape="68.58,23.29 71.02,22.61 72.77,21.38 73.83,19.59 74.20,17.24"/>
    </edge>
    <edge id=":junction-intersection-south_2" function="internal">
        <lane id=":junction-intersection-south_2_0" index="0" disallow="tram rail_urban rail rail_electric rail_fast ship" speed="27.78" length="14.37" shape="68.58,23.29 72.22,22.91 75.75,22.82 79.28,23.01 82.90,23.46"/>
    </edge>
    <edge id=":junction-intersection-west_0" function="internal">
        <lane id=":junction-intersection-west_0_0" index="0" disallow="tram rail_urban rail rail_electric rail_fast ship" speed="6.52" length="8.68" shape="26.57,77.97 26.08,75.66 24.98,74.02 23.25,73.05 20.91,72.75"/>
    </edge>
    <edge id=":junction-intersection-west_1" function="internal">
        <lane id=":junction-intersection-west_1_0" index="0" disallow="tram rail_urban rail rail_electric rail_fast ship" speed="27.78" length="13.73" shape="26.57,77.97 26.39,74.43 26.34,71.11 26.44,67.80 26.68,64.26"/>
    </edge>
    <edge id=":junction-intersection-west_2" function="internal">
        <lane id=":junction-intersection-west_2_0" index="0" disallow="tram rail_urban rail rail_electric rail_fast ship" speed="6.65" length="8.78" shape="20.87,69.55 23.24,69.19 25.00,68.19 26.15,66.54 26.68,64.26"/>
    </edge>

    <edge id="edge-east-EN" from="junction-intersection-east" to="junction-intersection-north" priority="11" type="highway.secondary" shape="122.60,71.84 122.01,78.86 120.38,85.71 117.73,92.25 114.13,98.32 109.67,103.79 104.43,108.54 98.54,112.46 92.12,115.46 85.33,117.48 78.31,118.47 75.52,118.45">
        <lane id="edge-east-EN_0" index="0" disallow="tram rail_urban rail rail_electric rail_fast ship" speed="27.78" length="61.95" shape="123.63,78.63 123.59,79.11 121.91,86.20 119.17,92.96 115.45,99.24 110.83,104.89 105.42,109.81 99.33,113.86 92.69,116.96 85.67,119.05 82.69,119.47"/>
    </edge>
    <edge id="edge-east-EW" from="junction-east" to="junction-intersection-east" priority="-1">
        <lane id="edge-east-EW_0" index="0" speed="13.89" length="19.54" shape="148.83,73.57 129.29,73.47"/>
    </edge>
    <edge id="edge-east-WE" from="junction-intersection-east" to="junction-east" priority="-1">
        <lane id="edge-east-WE_0" index="0" speed="13.89" length="19.54" shape="129.31,70.27 148.85,70.37"/>
    </edge>
    <edge id="edge-north-NS" from="junction-north" to="junction-intersection-north" priority="11" type="highway.secondary" shape="75.51,140.63 75.52,132.34 75.52,118.45">
        <lane id="edge-north-NS_0" index="0" disallow="tram rail_urban rail rail_electric rail_fast ship" speed="27.78" length="14.98" shape="73.91,140.63 73.92,132.34 73.92,125.64"/>
    </edge>
    <edge id="edge-north-NW" from="junction-intersection-north" to="junction-intersection-west" priority="11" type="highway.secondary" shape="75.52,118.45 71.22,118.41 64.21,117.31 57.45,115.17 51.09,112.07 45.26,108.05 40.11,103.22 35.73,97.67 32.24,91.54 29.70,84.97 28.18,78.08 27.71,71.06">
        <lane id="edge-north-NW_0" index="0" disallow="tram rail_urban rail rail_electric rail_fast ship" speed="27.78" length="63.37" shape="68.37,119.58 63.84,118.87 56.85,116.66 50.28,113.46 44.25,109.30 38.93,104.31 34.40,98.57 30.79,92.23 28.16,85.43 26.59,78.31 26.57,77.97"/>
    </edge>
    <edge id="edge-north-SN" from="junction-intersection-north" to="junction-north" priority="11" type="highway.secondary" shape="75.52,118.45 75.52,132.34 75.51,140.63">
        <lane id="edge-north-SN_0" index="0" disallow="tram rail_urban rail rail_electric rail_fast ship" speed="27.78" length="14.99" shape="77.12,125.64 77.12,132.34 77.11,140.63"/>
    </edge>
    <edge id="edge-south-NS" from="junction-intersection-south" to="junction-south" priority="11" type="highway.secondary">
        <lane id="edge-south-NS_0" index="0" disallow="tram rail_urban rail rail_electric rail_fast ship" speed="27.78" length="17.25" shape="74.20,17.24 74.33,-0.01"/>
    </edge>
    <edge id="edge-south-SE" from="junction-intersection-south" to="junction-intersection-east" priority="11" type="highway.secondary" shape="75.74,24.45 79.09,24.48 86.09,25.59 92.85,27.72 99.22,30.83 105.04,34.84 110.20,39.68 114.58,45.22 118.07,51.35 120.61,57.93 122.13,64.81 122.60,71.84">
        <lane id="edge-south-SE_0" index="0" disallow="tram rail_urban rail rail_electric rail_fast ship" speed="27.78" length="62.52" shape="82.90,23.46 86.46,24.03 93.44,26.23 100.03,29.44 106.05,33.59 111.38,38.59 115.91,44.32 119.52,50.66 122.15,57.47 123.72,64.58 123.75,65.05"/>
    </edge>
    <edge id="edge-south-SN" from="junction-south" to="junction-intersection-south" priority="11" type="highway.secondary">
        <lane id="edge-south-SN_0" index="0" disallow="tram rail_urban rail rail_electric rail_fast ship" speed="27.78" length="17.25" shape="77.53,0.01 77.40,17.26"/>
    </edge>
    <edge id="edge-west-EW" from="junction-intersection-west" to="juntion-west" priority="11" type="highway.secondary">
        <lane id="edge-west-EW_0" index="0" disallow="tram rail_urban rail rail_electric rail_fast ship" speed="27.78" length="20.89" shape="20.91,72.75 0.02,73.02"/>
    </edge>
    <edge id="edge-west-WE" from="juntion-west" to="junction-intersection-west" priority="11" type="highway.secondary">
        <lane id="edge-west-WE_0" index="0" disallow="tram rail_urban rail rail_electric rail_fast ship" speed="27.78" length="20.89" shape="-0.02,69.82 20.87,69.55"/>
    </edge>
    <edge id="edge-west-WS" from="junction-intersection-west" to="junction-intersection-south" priority="11" type="highway.secondary" shape="27.71,71.06 28.30,64.04 29.93,57.18 32.58,50.65 36.17,44.58 40.64,39.11 45.88,34.36 51.77,30.44 58.19,27.43 64.98,25.41 72.00,24.42 75.74,24.45">
        <lane id="edge-west-WS_0" index="0" disallow="tram rail_urban rail rail_electric rail_fast ship" speed="27.78" length="62.91" shape="26.68,64.26 26.72,63.79 28.40,56.69 31.14,49.94 34.85,43.66 39.48,38.00 44.89,33.09 50.98,29.04 57.62,25.93 64.64,23.84 68.58,23.29"/>
    </edge>

    <junction id="junction-east" type="dead_end" x="148.84" y="71.97" incLanes="edge-east-WE_0" intLanes="" shape="148.84,71.97 148.86,68.77 148.84,71.97"/>
    <junction id="junction-intersection-east" type="priority" x="122.60" y="71.84" incLanes="edge-east-EW_0 edge-south-SE_0" intLanes=":junction-intersection-east_0_0 :junction-intersection-east_1_0 :junction-intersection-east_2_0" shape="129.29,75.07 129.32,68.67 127.22,68.25 126.46,67.73 125.90,67.01 125.53,66.08 125.35,64.94 122.15,65.15 122.34,67.99 122.45,70.09 122.47,71.83 122.42,73.56 122.27,75.66 122.04,78.50 125.23,78.76 125.82,76.71 126.40,75.99 127.17,75.48 128.13,75.17">
        <request index="0" response="100" foes="100" cont="0"/>
        <request index="1" response="000" foes="000" cont="0"/>
        <request index="2" response="000" foes="001" cont="0"/>
    </junction>
    <junction id="junction-intersection-north" type="priority" x="75.52" y="118.45" incLanes="edge-north-NS_0 edge-east-EN_0" intLanes=":junction-intersection-north_0_0 :junction-intersection-north_1_0 :junction-intersection-north_2_0" shape="72.32,125.64 78.72,125.64 79.16,123.36 79.71,122.50 80.48,121.84 81.47,121.37 82.68,121.09 82.70,117.85 79.67,118.28 77.41,118.57 75.54,118.70 73.66,118.65 71.41,118.41 68.38,117.97 68.35,121.20 70.56,121.97 71.33,122.62 71.88,123.45 72.21,124.46">
        <request index="0" response="100" foes="100" cont="0"/>
        <request index="1" response="000" foes="000" cont="0"/>
        <request index="2" response="000" foes="001" cont="0"/>
    </junction>
    <junction id="junction-intersection-south" type="priority" x="75.74" y="24.45" incLanes="edge-south-SN_0 edge-west-WS_0" intLanes=":junction-intersection-south_0_0 :junction-intersection-south_1_0 :junction-intersection-south_2_0" shape="82.89,25.08 82.92,21.85 80.73,21.06 79.96,20.39 79.42,19.54 79.10,18.50 79.00,17.27 72.60,17.22 72.14,19.44 71.58,20.28 70.81,20.93 69.81,21.39 68.60,21.67 68.57,24.90 71.60,24.49 73.86,24.26 75.74,24.20 77.61,24.32 79.87,24.61">
        <request index="0" response="100" foes="100" cont="0"/>
        <request index="1" response="000" foes="000" cont="0"/>
        <request index="2" response="000" foes="001" cont="0"/>
    </junction>
    <junction id="junction-intersection-west" type="priority" x="27.71" y="71.06" incLanes="edge-north-NW_0 edge-west-WE_0" intLanes=":junction-intersection-west_0_0 :junction-intersection-west_1_0 :junction-intersection-west_2_0" shape="24.97,78.08 28.17,77.87 27.98,75.00 27.87,72.88 27.84,71.12 27.89,69.37 28.04,67.25 28.27,64.39 25.08,64.12 24.47,66.23 23.86,66.97 23.06,67.50 22.05,67.83 20.85,67.95 20.93,74.35 23.06,74.74 23.84,75.26 24.41,75.99 24.79,76.93">
        <request index="0" response="000" foes="000" cont="0"/>
        <request index="1" response="000" foes="100" cont="0"/>
        <request index="2" response="010" foes="010" cont="0"/>
    </junction>
    <junction id="junction-north" type="dead_end" x="75.51" y="140.63" incLanes="edge-north-SN_0" intLanes="" shape="75.51,140.63 78.71,140.63 75.51,140.63"/>
    <junction id="junction-south" type="dead_end" x="75.93" y="0.00" incLanes="edge-south-NS_0" intLanes="" shape="75.93,-0.00 72.73,-0.02 75.93,-0.00"/>
    <junction id="juntion-west" type="dead_end" x="0.00" y="71.42" incLanes="edge-west-EW_0" intLanes="" shape="0.00,71.42 0.04,74.62 0.00,71.42"/>

    <connection from="edge-east-EN" to="edge-north-SN" fromLane="0" toLane="0" via=":junction-intersection-north_1_0" dir="r" state="M"/>
    <connection from="edge-east-EN" to="edge-north-NW" fromLane="0" toLane="0" via=":junction-intersection-north_2_0" dir="s" state="M"/>
    <connection from="edge-east-EW" to="edge-east-EN" fromLane="0" toLane="0" via=":junction-intersection-east_0_0" dir="r" state="m"/>
    <connection from="edge-north-NS" to="edge-north-NW" fromLane="0" toLane="0" via=":junction-intersection-north_0_0" dir="r" state="m"/>
    <connection from="edge-north-NW" to="edge-west-EW" fromLane="0" toLane="0" via=":junction-intersection-west_0_0" dir="r" state="M"/>
    <connection from="edge-north-NW" to="edge-west-WS" fromLane="0" toLane="0" via=":junction-intersection-west_1_0" dir="s" state="M"/>
    <connection from="edge-south-SE" to="edge-east-WE" fromLane="0" toLane="0" via=":junction-intersection-east_1_0" dir="r" state="M"/>
    <connection from="edge-south-SE" to="edge-east-EN" fromLane="0" toLane="0" via=":junction-intersection-east_2_0" dir="s" state="M"/>
    <connection from="edge-south-SN" to="edge-south-SE" fromLane="0" toLane="0" via=":junction-intersection-south_0_0" dir="r" state="m"/>
    <connection from="edge-west-WE" to="edge-west-WS" fromLane="0" toLane="0" via=":junction-intersection-west_2_0" dir="r" state="m"/>
    <connection from="edge-west-WS" to="edge-south-NS" fromLane="0" toLane="0" via=":junction-intersection-south_1_0" dir="r" state="M"/>
    <connection from="edge-west-WS" to="edge-south-SE" fromLane="0" toLane="0" via=":junction-intersection-south_2_0" dir="s" state="M"/>

    <connection from=":junction-intersection-east_0" to="edge-east-EN" fromLane="0" toLane="0" dir="r" state="M"/>
    <connection from=":junction-intersection-east_1" to="edge-east-WE" fromLane="0" toLane="0" dir="r" state="M"/>
    <connection from=":junction-intersection-east_2" to="edge-east-EN" fromLane="0" toLane="0" dir="s" state="M"/>
    <connection from=":junction-intersection-north_0" to="edge-north-NW" fromLane="0" toLane="0" dir="r" state="M"/>
    <connection from=":junction-intersection-north_1" to="edge-north-SN" fromLane="0" toLane="0" dir="r" state="M"/>
    <connection from=":junction-intersection-north_2" to="edge-north-NW" fromLane="0" toLane="0" dir="s" state="M"/>
    <connection from=":junction-intersection-south_0" to="edge-south-SE" fromLane="0" toLane="0" dir="r" state="M"/>
    <connection from=":junction-intersection-south_1" to="edge-south-NS" fromLane="0" toLane="0" dir="r" state="M"/>
    <connection from=":junction-intersection-south_2" to="edge-south-SE" fromLane="0" toLane="0" dir="s" state="M"/>
    <connection from=":junction-intersection-west_0" to="edge-west-EW" fromLane="0" toLane="0" dir="r" state="M"/>
    <connection from=":junction-intersection-west_1" to="edge-west-WS" fromLane="0" toLane="0" dir="s" state="M"/>
    <connection from=":junction-intersection-west_2" to="edge-west-WS" fromLane="0" toLane="0" dir="r" state="M"/>

    <roundabout nodes="junction-intersection-east junction-intersection-north junction-intersection-south junction-intersection-west" edges="edge-east-EN edge-north-NW edge-south-SE edge-west-WS"/>

</net>
