<?xml version="1.0" encoding="UTF-8"?>

<!-- generated on Fri Sep  4 01:19:15 2020 by Eclipse SUMO duarouter Version 1.6.0
<configuration xmlns:xsi="http://www.w3.org/2001/XMLSchema-instance" xsi:noNamespaceSchemaLocation="http://sumo.dlr.de/xsd/duarouterConfiguration.xsd">

    <input>
        <net-file value="/home/lintao/projects/DAI2020_SMARTS_Competition_Track-2-master/dataset_public/crossroads/2lane/map.net.xml"/>
        <route-files value="/tmp/tmpwssxe9w8/trips.trips.xml"/>
    </input>

    <output>
        <output-file value="/home/lintao/projects/DAI2020_SMARTS_Competition_Track-2-master/dataset_public/crossroads/2lane/traffic/vertical.rou.xml"/>
        <alternatives-output value="/home/lintao/projects/DAI2020_SMARTS_Competition_Track-2-master/dataset_public/crossroads/2lane/traffic/vertical.rou.alt.xml"/>
    </output>

    <processing>
        <unsorted-input value="true"/>
        <repair value="true"/>
    </processing>

    <report>
        <error-log value="/tmp/smarts/_duarouter_routing/traffic/vertical.log"/>
        <no-step-log value="true"/>
    </report>

    <random_number>
        <seed value="42"/>
    </random_number>

</configuration>
-->

<routes xmlns:xsi="http://www.w3.org/2001/XMLSchema-instance" xsi:noNamespaceSchemaLocation="http://sumo.dlr.de/xsd/routes_file.xsd">
    <vType id="actor-car--6924512081856841631" minGap="2.50" speedFactor="normc(0.50,0.20,0.20,2.00)" vClass="passenger" impatience="0.50" lcCooperative="0.5" lcImpatience="0" jmDriveAfterYellowTime="1.0" accel="2.6" decel="4.5" sigma="0.5"/>
    <vehicle id="-flow-route-edge-north-NS_0_random-edge-south-NS_0_random-8579741189297525485--1278723111448083345-0-0.0" type="actor-car--6924512081856841631" depart="0.00" departLane="0" departPos="random" departSpeed="max" arrivalLane="0" arrivalPos="random">
        <route edges="edge-north-NS edge-south-NS"/>
    </vehicle>
    <vehicle id="-flow-route-edge-south-SN_0_random-edge-north-SN_0_random-3968590941261996402--1278723111448083345-1-0.0" type="actor-car--6924512081856841631" depart="0.00" departLane="0" departPos="random" departSpeed="max" arrivalLane="0" arrivalPos="random">
        <route edges="edge-south-SN edge-north-SN"/>
    </vehicle>
</routes>
