<?xml version="1.0" encoding="UTF-8"?>

<!-- generated on Fri Sep  4 01:13:06 2020 by Eclipse SUMO duarouter Version 1.6.0
<configuration xmlns:xsi="http://www.w3.org/2001/XMLSchema-instance" xsi:noNamespaceSchemaLocation="http://sumo.dlr.de/xsd/duarouterConfiguration.xsd">

    <input>
        <net-file value="/home/lintao/projects/DAI2020_SMARTS_Competition_Track-2-master/dataset_public/t_junction/2lane_t/map.net.xml"/>
        <route-files value="/tmp/tmpji7fy2ik/trips.trips.xml"/>
    </input>

    <output>
        <output-file value="/home/lintao/projects/DAI2020_SMARTS_Competition_Track-2-master/dataset_public/t_junction/2lane_t/traffic/left_to_right.rou.xml"/>
        <alternatives-output value="/home/lintao/projects/DAI2020_SMARTS_Competition_Track-2-master/dataset_public/t_junction/2lane_t/traffic/left_to_right.rou.alt.xml"/>
    </output>

    <processing>
        <unsorted-input value="true"/>
        <repair value="true"/>
    </processing>

    <report>
        <error-log value="/tmp/smarts/_duarouter_routing/traffic/left_to_right.log"/>
        <no-step-log value="true"/>
    </report>

    <random_number>
        <seed value="42"/>
    </random_number>

</configuration>
-->

<routes xmlns:xsi="http://www.w3.org/2001/XMLSchema-instance" xsi:noNamespaceSchemaLocation="http://sumo.dlr.de/xsd/routes_file.xsd">
    <vType id="actor-car--7436271319770113041" minGap="2.50" speedFactor="normc(1.00,0.20,0.20,2.00)" vClass="passenger" impatience="1.00" lcCooperative="0.25" lcImpatience="1" jmDriveAfterYellowTime="1.0" jmDriveAfterRedTime="1.5" accel="2.6" decel="4.5" sigma="0.5"/>
    <vehicle id="-flow-route-edge-west-WE_0_20-edge-east-WE_0_-20--4666989894883316221--8611559570733087586-0-0.0" type="actor-car--7436271319770113041" depart="0.00" departLane="0" departPos="20.00" departSpeed="max" arrivalLane="0" arrivalPos="-20.00">
        <route edges="edge-west-WE edge-east-WE"/>
    </vehicle>
    <vType id="actor-car--7491259269081825060" minGap="2.50" speedFactor="normc(0.80,0.20,0.20,2.00)" vClass="passenger" impatience="0.50" lcCooperative="0.5" lcImpatience="0" jmDriveAfterYellowTime="1.0" accel="2.6" decel="4.5" sigma="0.5"/>
    <vehicle id="-flow-route-edge-west-WE_0_20-edge-east-WE_0_-20--4666989894883316221--8611559570733087586-0-1.0" type="actor-car--7491259269081825060" depart="0.00" departLane="0" departPos="20.00" departSpeed="max" arrivalLane="0" arrivalPos="-20.00">
        <route edges="edge-west-WE edge-east-WE"/>
    </vehicle>
    <vehicle id="-flow-route-edge-west-WE_0_20-edge-east-WE_0_-20--4666989894883316221--8611559570733087586-0-0.1" type="actor-car--7436271319770113041" depart="2.00" departLane="0" departPos="20.00" departSpeed="max" arrivalLane="0" arrivalPos="-20.00">
        <route edges="edge-west-WE edge-east-WE"/>
    </vehicle>
    <vehicle id="-flow-route-edge-west-WE_0_20-edge-east-WE_0_-20--4666989894883316221--8611559570733087586-0-1.1" type="actor-car--7491259269081825060" depart="2.00" departLane="0" departPos="20.00" departSpeed="max" arrivalLane="0" arrivalPos="-20.00">
        <route edges="edge-west-WE edge-east-WE"/>
    </vehicle>
    <vehicle id="-flow-route-edge-west-WE_0_20-edge-east-WE_0_-20--4666989894883316221--8611559570733087586-0-0.2" type="actor-car--7436271319770113041" depart="4.00" departLane="0" departPos="20.00" departSpeed="max" arrivalLane="0" arrivalPos="-20.00">
        <route edges="edge-west-WE edge-east-WE"/>
    </vehicle>
    <vehicle id="-flow-route-edge-west-WE_0_20-edge-east-WE_0_-20--4666989894883316221--8611559570733087586-0-1.2" type="actor-car--7491259269081825060" depart="4.00" departLane="0" departPos="20.00" departSpeed="max" arrivalLane="0" arrivalPos="-20.00">
        <route edges="edge-west-WE edge-east-WE"/>
    </vehicle>
    <vehicle id="-flow-route-edge-west-WE_0_20-edge-east-WE_0_-20--4666989894883316221--8611559570733087586-0-0.3" type="actor-car--7436271319770113041" depart="6.00" departLane="0" departPos="20.00" departSpeed="max" arrivalLane="0" arrivalPos="-20.00">
        <route edges="edge-west-WE edge-east-WE"/>
    </vehicle>
    <vehicle id="-flow-route-edge-west-WE_0_20-edge-east-WE_0_-20--4666989894883316221--8611559570733087586-0-1.3" type="actor-car--7491259269081825060" depart="6.00" departLane="0" departPos="20.00" departSpeed="max" arrivalLane="0" arrivalPos="-20.00">
        <route edges="edge-west-WE edge-east-WE"/>
    </vehicle>
    <vehicle id="-flow-route-edge-west-WE_0_20-edge-east-WE_0_-20--4666989894883316221--8611559570733087586-0-0.4" type="actor-car--7436271319770113041" depart="8.00" departLane="0" departPos="20.00" departSpeed="max" arrivalLane="0" arrivalPos="-20.00">
        <route edges="edge-west-WE edge-east-WE"/>
    </vehicle>
    <vehicle id="-flow-route-edge-west-WE_0_20-edge-east-WE_0_-20--4666989894883316221--8611559570733087586-0-1.4" type="actor-car--7491259269081825060" depart="8.00" departLane="0" departPos="20.00" departSpeed="max" arrivalLane="0" arrivalPos="-20.00">
        <route edges="edge-west-WE edge-east-WE"/>
    </vehicle>
    <vehicle id="-flow-route-edge-west-WE_0_20-edge-east-WE_0_-20--4666989894883316221--8611559570733087586-0-0.5" type="actor-car--7436271319770113041" depart="10.00" departLane="0" departPos="20.00" departSpeed="max" arrivalLane="0" arrivalPos="-20.00">
        <route edges="edge-west-WE edge-east-WE"/>
    </vehicle>
    <vehicle id="-flow-route-edge-west-WE_0_20-edge-east-WE_0_-20--4666989894883316221--8611559570733087586-0-1.5" type="actor-car--7491259269081825060" depart="10.00" departLane="0" departPos="20.00" departSpeed="max" arrivalLane="0" arrivalPos="-20.00">
        <route edges="edge-west-WE edge-east-WE"/>
    </vehicle>
    <vehicle id="-flow-route-edge-west-WE_0_20-edge-east-WE_0_-20--4666989894883316221--8611559570733087586-0-0.6" type="actor-car--7436271319770113041" depart="12.00" departLane="0" departPos="20.00" departSpeed="max" arrivalLane="0" arrivalPos="-20.00">
        <route edges="edge-west-WE edge-east-WE"/>
    </vehicle>
    <vehicle id="-flow-route-edge-west-WE_0_20-edge-east-WE_0_-20--4666989894883316221--8611559570733087586-0-1.6" type="actor-car--7491259269081825060" depart="12.00" departLane="0" departPos="20.00" departSpeed="max" arrivalLane="0" arrivalPos="-20.00">
        <route edges="edge-west-WE edge-east-WE"/>
    </vehicle>
    <vehicle id="-flow-route-edge-west-WE_0_20-edge-east-WE_0_-20--4666989894883316221--8611559570733087586-0-0.7" type="actor-car--7436271319770113041" depart="14.00" departLane="0" departPos="20.00" departSpeed="max" arrivalLane="0" arrivalPos="-20.00">
        <route edges="edge-west-WE edge-east-WE"/>
    </vehicle>
    <vehicle id="-flow-route-edge-west-WE_0_20-edge-east-WE_0_-20--4666989894883316221--8611559570733087586-0-1.7" type="actor-car--7491259269081825060" depart="14.00" departLane="0" departPos="20.00" departSpeed="max" arrivalLane="0" arrivalPos="-20.00">
        <route edges="edge-west-WE edge-east-WE"/>
    </vehicle>
    <vehicle id="-flow-route-edge-west-WE_0_20-edge-east-WE_0_-20--4666989894883316221--8611559570733087586-0-0.8" type="actor-car--7436271319770113041" depart="16.00" departLane="0" departPos="20.00" departSpeed="max" arrivalLane="0" arrivalPos="-20.00">
        <route edges="edge-west-WE edge-east-WE"/>
    </vehicle>
    <vehicle id="-flow-route-edge-west-WE_0_20-edge-east-WE_0_-20--4666989894883316221--8611559570733087586-0-1.8" type="actor-car--7491259269081825060" depart="16.00" departLane="0" departPos="20.00" departSpeed="max" arrivalLane="0" arrivalPos="-20.00">
        <route edges="edge-west-WE edge-east-WE"/>
    </vehicle>
    <vehicle id="-flow-route-edge-west-WE_0_20-edge-east-WE_0_-20--4666989894883316221--8611559570733087586-0-0.9" type="actor-car--7436271319770113041" depart="18.00" departLane="0" departPos="20.00" departSpeed="max" arrivalLane="0" arrivalPos="-20.00">
        <route edges="edge-west-WE edge-east-WE"/>
    </vehicle>
    <vehicle id="-flow-route-edge-west-WE_0_20-edge-east-WE_0_-20--4666989894883316221--8611559570733087586-0-1.9" type="actor-car--7491259269081825060" depart="18.00" departLane="0" departPos="20.00" departSpeed="max" arrivalLane="0" arrivalPos="-20.00">
        <route edges="edge-west-WE edge-east-WE"/>
    </vehicle>
    <vehicle id="-flow-route-edge-west-WE_0_20-edge-east-WE_0_-20--4666989894883316221--8611559570733087586-0-0.10" type="actor-car--7436271319770113041" depart="20.00" departLane="0" departPos="20.00" departSpeed="max" arrivalLane="0" arrivalPos="-20.00">
        <route edges="edge-west-WE edge-east-WE"/>
    </vehicle>
    <vehicle id="-flow-route-edge-west-WE_0_20-edge-east-WE_0_-20--4666989894883316221--8611559570733087586-0-1.10" type="actor-car--7491259269081825060" depart="20.00" departLane="0" departPos="20.00" departSpeed="max" arrivalLane="0" arrivalPos="-20.00">
        <route edges="edge-west-WE edge-east-WE"/>
    </vehicle>
    <vehicle id="-flow-route-edge-west-WE_0_20-edge-east-WE_0_-20--4666989894883316221--8611559570733087586-0-0.11" type="actor-car--7436271319770113041" depart="22.00" departLane="0" departPos="20.00" departSpeed="max" arrivalLane="0" arrivalPos="-20.00">
        <route edges="edge-west-WE edge-east-WE"/>
    </vehicle>
    <vehicle id="-flow-route-edge-west-WE_0_20-edge-east-WE_0_-20--4666989894883316221--8611559570733087586-0-1.11" type="actor-car--7491259269081825060" depart="22.00" departLane="0" departPos="20.00" departSpeed="max" arrivalLane="0" arrivalPos="-20.00">
        <route edges="edge-west-WE edge-east-WE"/>
    </vehicle>
    <vehicle id="-flow-route-edge-west-WE_0_20-edge-east-WE_0_-20--4666989894883316221--8611559570733087586-0-0.12" type="actor-car--7436271319770113041" depart="24.00" departLane="0" departPos="20.00" departSpeed="max" arrivalLane="0" arrivalPos="-20.00">
        <route edges="edge-west-WE edge-east-WE"/>
    </vehicle>
    <vehicle id="-flow-route-edge-west-WE_0_20-edge-east-WE_0_-20--4666989894883316221--8611559570733087586-0-1.12" type="actor-car--7491259269081825060" depart="24.00" departLane="0" departPos="20.00" departSpeed="max" arrivalLane="0" arrivalPos="-20.00">
        <route edges="edge-west-WE edge-east-WE"/>
    </vehicle>
    <vehicle id="-flow-route-edge-west-WE_0_20-edge-east-WE_0_-20--4666989894883316221--8611559570733087586-0-0.13" type="actor-car--7436271319770113041" depart="26.00" departLane="0" departPos="20.00" departSpeed="max" arrivalLane="0" arrivalPos="-20.00">
        <route edges="edge-west-WE edge-east-WE"/>
    </vehicle>
    <vehicle id="-flow-route-edge-west-WE_0_20-edge-east-WE_0_-20--4666989894883316221--8611559570733087586-0-1.13" type="actor-car--7491259269081825060" depart="26.00" departLane="0" departPos="20.00" departSpeed="max" arrivalLane="0" arrivalPos="-20.00">
        <route edges="edge-west-WE edge-east-WE"/>
    </vehicle>
    <vehicle id="-flow-route-edge-west-WE_0_20-edge-east-WE_0_-20--4666989894883316221--8611559570733087586-0-0.14" type="actor-car--7436271319770113041" depart="28.00" departLane="0" departPos="20.00" departSpeed="max" arrivalLane="0" arrivalPos="-20.00">
        <route edges="edge-west-WE edge-east-WE"/>
    </vehicle>
    <vehicle id="-flow-route-edge-west-WE_0_20-edge-east-WE_0_-20--4666989894883316221--8611559570733087586-0-1.14" type="actor-car--7491259269081825060" depart="28.00" departLane="0" departPos="20.00" departSpeed="max" arrivalLane="0" arrivalPos="-20.00">
        <route edges="edge-west-WE edge-east-WE"/>
    </vehicle>
    <vehicle id="-flow-route-edge-west-WE_0_20-edge-east-WE_0_-20--4666989894883316221--8611559570733087586-0-0.15" type="actor-car--7436271319770113041" depart="30.00" departLane="0" departPos="20.00" departSpeed="max" arrivalLane="0" arrivalPos="-20.00">
        <route edges="edge-west-WE edge-east-WE"/>
    </vehicle>
    <vehicle id="-flow-route-edge-west-WE_0_20-edge-east-WE_0_-20--4666989894883316221--8611559570733087586-0-1.15" type="actor-car--7491259269081825060" depart="30.00" departLane="0" departPos="20.00" departSpeed="max" arrivalLane="0" arrivalPos="-20.00">
        <route edges="edge-west-WE edge-east-WE"/>
    </vehicle>
    <vehicle id="-flow-route-edge-west-WE_0_20-edge-east-WE_0_-20--4666989894883316221--8611559570733087586-0-0.16" type="actor-car--7436271319770113041" depart="32.00" departLane="0" departPos="20.00" departSpeed="max" arrivalLane="0" arrivalPos="-20.00">
        <route edges="edge-west-WE edge-east-WE"/>
    </vehicle>
    <vehicle id="-flow-route-edge-west-WE_0_20-edge-east-WE_0_-20--4666989894883316221--8611559570733087586-0-1.16" type="actor-car--7491259269081825060" depart="32.00" departLane="0" departPos="20.00" departSpeed="max" arrivalLane="0" arrivalPos="-20.00">
        <route edges="edge-west-WE edge-east-WE"/>
    </vehicle>
    <vehicle id="-flow-route-edge-west-WE_0_20-edge-east-WE_0_-20--4666989894883316221--8611559570733087586-0-0.17" type="actor-car--7436271319770113041" depart="34.00" departLane="0" departPos="20.00" departSpeed="max" arrivalLane="0" arrivalPos="-20.00">
        <route edges="edge-west-WE edge-east-WE"/>
    </vehicle>
    <vehicle id="-flow-route-edge-west-WE_0_20-edge-east-WE_0_-20--4666989894883316221--8611559570733087586-0-1.17" type="actor-car--7491259269081825060" depart="34.00" departLane="0" departPos="20.00" departSpeed="max" arrivalLane="0" arrivalPos="-20.00">
        <route edges="edge-west-WE edge-east-WE"/>
    </vehicle>
    <vehicle id="-flow-route-edge-west-WE_0_20-edge-east-WE_0_-20--4666989894883316221--8611559570733087586-0-0.18" type="actor-car--7436271319770113041" depart="36.00" departLane="0" departPos="20.00" departSpeed="max" arrivalLane="0" arrivalPos="-20.00">
        <route edges="edge-west-WE edge-east-WE"/>
    </vehicle>
    <vehicle id="-flow-route-edge-west-WE_0_20-edge-east-WE_0_-20--4666989894883316221--8611559570733087586-0-1.18" type="actor-car--7491259269081825060" depart="36.00" departLane="0" departPos="20.00" departSpeed="max" arrivalLane="0" arrivalPos="-20.00">
        <route edges="edge-west-WE edge-east-WE"/>
    </vehicle>
    <vehicle id="-flow-route-edge-west-WE_0_20-edge-east-WE_0_-20--4666989894883316221--8611559570733087586-0-0.19" type="actor-car--7436271319770113041" depart="38.00" departLane="0" departPos="20.00" departSpeed="max" arrivalLane="0" arrivalPos="-20.00">
        <route edges="edge-west-WE edge-east-WE"/>
    </vehicle>
    <vehicle id="-flow-route-edge-west-WE_0_20-edge-east-WE_0_-20--4666989894883316221--8611559570733087586-0-1.19" type="actor-car--7491259269081825060" depart="38.00" departLane="0" departPos="20.00" departSpeed="max" arrivalLane="0" arrivalPos="-20.00">
        <route edges="edge-west-WE edge-east-WE"/>
    </vehicle>
    <vehicle id="-flow-route-edge-west-WE_0_20-edge-east-WE_0_-20--4666989894883316221--8611559570733087586-0-0.20" type="actor-car--7436271319770113041" depart="40.00" departLane="0" departPos="20.00" departSpeed="max" arrivalLane="0" arrivalPos="-20.00">
        <route edges="edge-west-WE edge-east-WE"/>
    </vehicle>
    <vehicle id="-flow-route-edge-west-WE_0_20-edge-east-WE_0_-20--4666989894883316221--8611559570733087586-0-1.20" type="actor-car--7491259269081825060" depart="40.00" departLane="0" departPos="20.00" departSpeed="max" arrivalLane="0" arrivalPos="-20.00">
        <route edges="edge-west-WE edge-east-WE"/>
    </vehicle>
    <vehicle id="-flow-route-edge-west-WE_0_20-edge-east-WE_0_-20--4666989894883316221--8611559570733087586-0-0.21" type="actor-car--7436271319770113041" depart="42.00" departLane="0" departPos="20.00" departSpeed="max" arrivalLane="0" arrivalPos="-20.00">
        <route edges="edge-west-WE edge-east-WE"/>
    </vehicle>
    <vehicle id="-flow-route-edge-west-WE_0_20-edge-east-WE_0_-20--4666989894883316221--8611559570733087586-0-1.21" type="actor-car--7491259269081825060" depart="42.00" departLane="0" departPos="20.00" departSpeed="max" arrivalLane="0" arrivalPos="-20.00">
        <route edges="edge-west-WE edge-east-WE"/>
    </vehicle>
    <vehicle id="-flow-route-edge-west-WE_0_20-edge-east-WE_0_-20--4666989894883316221--8611559570733087586-0-0.22" type="actor-car--7436271319770113041" depart="44.00" departLane="0" departPos="20.00" departSpeed="max" arrivalLane="0" arrivalPos="-20.00">
        <route edges="edge-west-WE edge-east-WE"/>
    </vehicle>
    <vehicle id="-flow-route-edge-west-WE_0_20-edge-east-WE_0_-20--4666989894883316221--8611559570733087586-0-1.22" type="actor-car--7491259269081825060" depart="44.00" departLane="0" departPos="20.00" departSpeed="max" arrivalLane="0" arrivalPos="-20.00">
        <route edges="edge-west-WE edge-east-WE"/>
    </vehicle>
    <vehicle id="-flow-route-edge-west-WE_0_20-edge-east-WE_0_-20--4666989894883316221--8611559570733087586-0-0.23" type="actor-car--7436271319770113041" depart="46.00" departLane="0" departPos="20.00" departSpeed="max" arrivalLane="0" arrivalPos="-20.00">
        <route edges="edge-west-WE edge-east-WE"/>
    </vehicle>
    <vehicle id="-flow-route-edge-west-WE_0_20-edge-east-WE_0_-20--4666989894883316221--8611559570733087586-0-1.23" type="actor-car--7491259269081825060" depart="46.00" departLane="0" departPos="20.00" departSpeed="max" arrivalLane="0" arrivalPos="-20.00">
        <route edges="edge-west-WE edge-east-WE"/>
    </vehicle>
    <vehicle id="-flow-route-edge-west-WE_0_20-edge-east-WE_0_-20--4666989894883316221--8611559570733087586-0-0.24" type="actor-car--7436271319770113041" depart="48.00" departLane="0" departPos="20.00" departSpeed="max" arrivalLane="0" arrivalPos="-20.00">
        <route edges="edge-west-WE edge-east-WE"/>
    </vehicle>
    <vehicle id="-flow-route-edge-west-WE_0_20-edge-east-WE_0_-20--4666989894883316221--8611559570733087586-0-1.24" type="actor-car--7491259269081825060" depart="48.00" departLane="0" departPos="20.00" departSpeed="max" arrivalLane="0" arrivalPos="-20.00">
        <route edges="edge-west-WE edge-east-WE"/>
    </vehicle>
    <vehicle id="-flow-route-edge-west-WE_0_20-edge-east-WE_0_-20--4666989894883316221--8611559570733087586-0-0.25" type="actor-car--7436271319770113041" depart="50.00" departLane="0" departPos="20.00" departSpeed="max" arrivalLane="0" arrivalPos="-20.00">
        <route edges="edge-west-WE edge-east-WE"/>
    </vehicle>
    <vehicle id="-flow-route-edge-west-WE_0_20-edge-east-WE_0_-20--4666989894883316221--8611559570733087586-0-1.25" type="actor-car--7491259269081825060" depart="50.00" departLane="0" departPos="20.00" departSpeed="max" arrivalLane="0" arrivalPos="-20.00">
        <route edges="edge-west-WE edge-east-WE"/>
    </vehicle>
    <vehicle id="-flow-route-edge-west-WE_0_20-edge-east-WE_0_-20--4666989894883316221--8611559570733087586-0-0.26" type="actor-car--7436271319770113041" depart="52.00" departLane="0" departPos="20.00" departSpeed="max" arrivalLane="0" arrivalPos="-20.00">
        <route edges="edge-west-WE edge-east-WE"/>
    </vehicle>
    <vehicle id="-flow-route-edge-west-WE_0_20-edge-east-WE_0_-20--4666989894883316221--8611559570733087586-0-1.26" type="actor-car--7491259269081825060" depart="52.00" departLane="0" departPos="20.00" departSpeed="max" arrivalLane="0" arrivalPos="-20.00">
        <route edges="edge-west-WE edge-east-WE"/>
    </vehicle>
    <vehicle id="-flow-route-edge-west-WE_0_20-edge-east-WE_0_-20--4666989894883316221--8611559570733087586-0-0.27" type="actor-car--7436271319770113041" depart="54.00" departLane="0" departPos="20.00" departSpeed="max" arrivalLane="0" arrivalPos="-20.00">
        <route edges="edge-west-WE edge-east-WE"/>
    </vehicle>
    <vehicle id="-flow-route-edge-west-WE_0_20-edge-east-WE_0_-20--4666989894883316221--8611559570733087586-0-1.27" type="actor-car--7491259269081825060" depart="54.00" departLane="0" departPos="20.00" departSpeed="max" arrivalLane="0" arrivalPos="-20.00">
        <route edges="edge-west-WE edge-east-WE"/>
    </vehicle>
    <vehicle id="-flow-route-edge-west-WE_0_20-edge-east-WE_0_-20--4666989894883316221--8611559570733087586-0-0.28" type="actor-car--7436271319770113041" depart="56.00" departLane="0" departPos="20.00" departSpeed="max" arrivalLane="0" arrivalPos="-20.00">
        <route edges="edge-west-WE edge-east-WE"/>
    </vehicle>
    <vehicle id="-flow-route-edge-west-WE_0_20-edge-east-WE_0_-20--4666989894883316221--8611559570733087586-0-1.28" type="actor-car--7491259269081825060" depart="56.00" departLane="0" departPos="20.00" departSpeed="max" arrivalLane="0" arrivalPos="-20.00">
        <route edges="edge-west-WE edge-east-WE"/>
    </vehicle>
    <vehicle id="-flow-route-edge-west-WE_0_20-edge-east-WE_0_-20--4666989894883316221--8611559570733087586-0-0.29" type="actor-car--7436271319770113041" depart="58.00" departLane="0" departPos="20.00" departSpeed="max" arrivalLane="0" arrivalPos="-20.00">
        <route edges="edge-west-WE edge-east-WE"/>
    </vehicle>
    <vehicle id="-flow-route-edge-west-WE_0_20-edge-east-WE_0_-20--4666989894883316221--8611559570733087586-0-1.29" type="actor-car--7491259269081825060" depart="58.00" departLane="0" departPos="20.00" departSpeed="max" arrivalLane="0" arrivalPos="-20.00">
        <route edges="edge-west-WE edge-east-WE"/>
    </vehicle>
    <vehicle id="-flow-route-edge-west-WE_0_20-edge-east-WE_0_-20--4666989894883316221--8611559570733087586-0-0.30" type="actor-car--7436271319770113041" depart="60.00" departLane="0" departPos="20.00" departSpeed="max" arrivalLane="0" arrivalPos="-20.00">
        <route edges="edge-west-WE edge-east-WE"/>
    </vehicle>
    <vehicle id="-flow-route-edge-west-WE_0_20-edge-east-WE_0_-20--4666989894883316221--8611559570733087586-0-1.30" type="actor-car--7491259269081825060" depart="60.00" departLane="0" departPos="20.00" departSpeed="max" arrivalLane="0" arrivalPos="-20.00">
        <route edges="edge-west-WE edge-east-WE"/>
    </vehicle>
    <vehicle id="-flow-route-edge-west-WE_0_20-edge-east-WE_0_-20--4666989894883316221--8611559570733087586-0-0.31" type="actor-car--7436271319770113041" depart="62.00" departLane="0" departPos="20.00" departSpeed="max" arrivalLane="0" arrivalPos="-20.00">
        <route edges="edge-west-WE edge-east-WE"/>
    </vehicle>
    <vehicle id="-flow-route-edge-west-WE_0_20-edge-east-WE_0_-20--4666989894883316221--8611559570733087586-0-1.31" type="actor-car--7491259269081825060" depart="62.00" departLane="0" departPos="20.00" departSpeed="max" arrivalLane="0" arrivalPos="-20.00">
        <route edges="edge-west-WE edge-east-WE"/>
    </vehicle>
    <vehicle id="-flow-route-edge-west-WE_0_20-edge-east-WE_0_-20--4666989894883316221--8611559570733087586-0-0.32" type="actor-car--7436271319770113041" depart="64.00" departLane="0" departPos="20.00" departSpeed="max" arrivalLane="0" arrivalPos="-20.00">
        <route edges="edge-west-WE edge-east-WE"/>
    </vehicle>
    <vehicle id="-flow-route-edge-west-WE_0_20-edge-east-WE_0_-20--4666989894883316221--8611559570733087586-0-1.32" type="actor-car--7491259269081825060" depart="64.00" departLane="0" departPos="20.00" departSpeed="max" arrivalLane="0" arrivalPos="-20.00">
        <route edges="edge-west-WE edge-east-WE"/>
    </vehicle>
    <vehicle id="-flow-route-edge-west-WE_0_20-edge-east-WE_0_-20--4666989894883316221--8611559570733087586-0-0.33" type="actor-car--7436271319770113041" depart="66.00" departLane="0" departPos="20.00" departSpeed="max" arrivalLane="0" arrivalPos="-20.00">
        <route edges="edge-west-WE edge-east-WE"/>
    </vehicle>
    <vehicle id="-flow-route-edge-west-WE_0_20-edge-east-WE_0_-20--4666989894883316221--8611559570733087586-0-1.33" type="actor-car--7491259269081825060" depart="66.00" departLane="0" departPos="20.00" departSpeed="max" arrivalLane="0" arrivalPos="-20.00">
        <route edges="edge-west-WE edge-east-WE"/>
    </vehicle>
    <vehicle id="-flow-route-edge-west-WE_0_20-edge-east-WE_0_-20--4666989894883316221--8611559570733087586-0-0.34" type="actor-car--7436271319770113041" depart="68.00" departLane="0" departPos="20.00" departSpeed="max" arrivalLane="0" arrivalPos="-20.00">
        <route edges="edge-west-WE edge-east-WE"/>
    </vehicle>
    <vehicle id="-flow-route-edge-west-WE_0_20-edge-east-WE_0_-20--4666989894883316221--8611559570733087586-0-1.34" type="actor-car--7491259269081825060" depart="68.00" departLane="0" departPos="20.00" departSpeed="max" arrivalLane="0" arrivalPos="-20.00">
        <route edges="edge-west-WE edge-east-WE"/>
    </vehicle>
    <vehicle id="-flow-route-edge-west-WE_0_20-edge-east-WE_0_-20--4666989894883316221--8611559570733087586-0-0.35" type="actor-car--7436271319770113041" depart="70.00" departLane="0" departPos="20.00" departSpeed="max" arrivalLane="0" arrivalPos="-20.00">
        <route edges="edge-west-WE edge-east-WE"/>
    </vehicle>
    <vehicle id="-flow-route-edge-west-WE_0_20-edge-east-WE_0_-20--4666989894883316221--8611559570733087586-0-1.35" type="actor-car--7491259269081825060" depart="70.00" departLane="0" departPos="20.00" departSpeed="max" arrivalLane="0" arrivalPos="-20.00">
        <route edges="edge-west-WE edge-east-WE"/>
    </vehicle>
    <vehicle id="-flow-route-edge-west-WE_0_20-edge-east-WE_0_-20--4666989894883316221--8611559570733087586-0-0.36" type="actor-car--7436271319770113041" depart="72.00" departLane="0" departPos="20.00" departSpeed="max" arrivalLane="0" arrivalPos="-20.00">
        <route edges="edge-west-WE edge-east-WE"/>
    </vehicle>
    <vehicle id="-flow-route-edge-west-WE_0_20-edge-east-WE_0_-20--4666989894883316221--8611559570733087586-0-1.36" type="actor-car--7491259269081825060" depart="72.00" departLane="0" departPos="20.00" departSpeed="max" arrivalLane="0" arrivalPos="-20.00">
        <route edges="edge-west-WE edge-east-WE"/>
    </vehicle>
    <vehicle id="-flow-route-edge-west-WE_0_20-edge-east-WE_0_-20--4666989894883316221--8611559570733087586-0-0.37" type="actor-car--7436271319770113041" depart="74.00" departLane="0" departPos="20.00" departSpeed="max" arrivalLane="0" arrivalPos="-20.00">
        <route edges="edge-west-WE edge-east-WE"/>
    </vehicle>
    <vehicle id="-flow-route-edge-west-WE_0_20-edge-east-WE_0_-20--4666989894883316221--8611559570733087586-0-1.37" type="actor-car--7491259269081825060" depart="74.00" departLane="0" departPos="20.00" departSpeed="max" arrivalLane="0" arrivalPos="-20.00">
        <route edges="edge-west-WE edge-east-WE"/>
    </vehicle>
    <vehicle id="-flow-route-edge-west-WE_0_20-edge-east-WE_0_-20--4666989894883316221--8611559570733087586-0-0.38" type="actor-car--7436271319770113041" depart="76.00" departLane="0" departPos="20.00" departSpeed="max" arrivalLane="0" arrivalPos="-20.00">
        <route edges="edge-west-WE edge-east-WE"/>
    </vehicle>
    <vehicle id="-flow-route-edge-west-WE_0_20-edge-east-WE_0_-20--4666989894883316221--8611559570733087586-0-1.38" type="actor-car--7491259269081825060" depart="76.00" departLane="0" departPos="20.00" departSpeed="max" arrivalLane="0" arrivalPos="-20.00">
        <route edges="edge-west-WE edge-east-WE"/>
    </vehicle>
    <vehicle id="-flow-route-edge-west-WE_0_20-edge-east-WE_0_-20--4666989894883316221--8611559570733087586-0-0.39" type="actor-car--7436271319770113041" depart="78.00" departLane="0" departPos="20.00" departSpeed="max" arrivalLane="0" arrivalPos="-20.00">
        <route edges="edge-west-WE edge-east-WE"/>
    </vehicle>
    <vehicle id="-flow-route-edge-west-WE_0_20-edge-east-WE_0_-20--4666989894883316221--8611559570733087586-0-1.39" type="actor-car--7491259269081825060" depart="78.00" departLane="0" departPos="20.00" departSpeed="max" arrivalLane="0" arrivalPos="-20.00">
        <route edges="edge-west-WE edge-east-WE"/>
    </vehicle>
    <vehicle id="-flow-route-edge-west-WE_0_20-edge-east-WE_0_-20--4666989894883316221--8611559570733087586-0-0.40" type="actor-car--7436271319770113041" depart="80.00" departLane="0" departPos="20.00" departSpeed="max" arrivalLane="0" arrivalPos="-20.00">
        <route edges="edge-west-WE edge-east-WE"/>
    </vehicle>
    <vehicle id="-flow-route-edge-west-WE_0_20-edge-east-WE_0_-20--4666989894883316221--8611559570733087586-0-1.40" type="actor-car--7491259269081825060" depart="80.00" departLane="0" departPos="20.00" departSpeed="max" arrivalLane="0" arrivalPos="-20.00">
        <route edges="edge-west-WE edge-east-WE"/>
    </vehicle>
    <vehicle id="-flow-route-edge-west-WE_0_20-edge-east-WE_0_-20--4666989894883316221--8611559570733087586-0-0.41" type="actor-car--7436271319770113041" depart="82.00" departLane="0" departPos="20.00" departSpeed="max" arrivalLane="0" arrivalPos="-20.00">
        <route edges="edge-west-WE edge-east-WE"/>
    </vehicle>
    <vehicle id="-flow-route-edge-west-WE_0_20-edge-east-WE_0_-20--4666989894883316221--8611559570733087586-0-1.41" type="actor-car--7491259269081825060" depart="82.00" departLane="0" departPos="20.00" departSpeed="max" arrivalLane="0" arrivalPos="-20.00">
        <route edges="edge-west-WE edge-east-WE"/>
    </vehicle>
    <vehicle id="-flow-route-edge-west-WE_0_20-edge-east-WE_0_-20--4666989894883316221--8611559570733087586-0-0.42" type="actor-car--7436271319770113041" depart="84.00" departLane="0" departPos="20.00" departSpeed="max" arrivalLane="0" arrivalPos="-20.00">
        <route edges="edge-west-WE edge-east-WE"/>
    </vehicle>
    <vehicle id="-flow-route-edge-west-WE_0_20-edge-east-WE_0_-20--4666989894883316221--8611559570733087586-0-1.42" type="actor-car--7491259269081825060" depart="84.00" departLane="0" departPos="20.00" departSpeed="max" arrivalLane="0" arrivalPos="-20.00">
        <route edges="edge-west-WE edge-east-WE"/>
    </vehicle>
    <vehicle id="-flow-route-edge-west-WE_0_20-edge-east-WE_0_-20--4666989894883316221--8611559570733087586-0-0.43" type="actor-car--7436271319770113041" depart="86.00" departLane="0" departPos="20.00" departSpeed="max" arrivalLane="0" arrivalPos="-20.00">
        <route edges="edge-west-WE edge-east-WE"/>
    </vehicle>