<?xml version="1.0" encoding="UTF-8"?>

<!-- generated on Fri Sep  4 01:13:07 2020 by Eclipse SUMO duarouter Version 1.6.0
<configuration xmlns:xsi="http://www.w3.org/2001/XMLSchema-instance" xsi:noNamespaceSchemaLocation="http://sumo.dlr.de/xsd/duarouterConfiguration.xsd">

    <input>
        <net-file value="/home/lintao/projects/DAI2020_SMARTS_Competition_Track-2-master/dataset_public/crossroads/4lane/map.net.xml"/>
        <route-files value="/tmp/tmpwlurp9gy/trips.trips.xml"/>
    </input>

    <output>
        <output-file value="/home/lintao/projects/DAI2020_SMARTS_Competition_Track-2-master/dataset_public/crossroads/4lane/traffic/all.rou.xml"/>
        <alternatives-output value="/home/lintao/projects/DAI2020_SMARTS_Competition_Track-2-master/dataset_public/crossroads/4lane/traffic/all.rou.alt.xml"/>
    </output>

    <processing>
        <unsorted-input value="true"/>
        <repair value="true"/>
    </processing>

    <report>
        <error-log value="/tmp/smarts/_duarouter_routing/traffic/all.log"/>
        <no-step-log value="true"/>
    </report>

    <random_number>
        <seed value="42"/>
    </random_number>

</configuration>
-->

<routes xmlns:xsi="http://www.w3.org/2001/XMLSchema-instance" xsi:noNamespaceSchemaLocation="http://sumo.dlr.de/xsd/routes_file.xsd">
    <vType id="actor-car--3057615833987552606" minGap="2.50" speedFactor="normc(0.50,0.20,0.20,2.00)" vClass="passenger" impatience="0.50" lcCooperative="0.5" lcImpatience="0" jmDriveAfterYellowTime="1.0" accel="2.6" decel="4.5" sigma="0.5"/>
    <vehicle id="-flow-route-edge-east-EW_0_random-edge-north-SN_0_random--2156423771667038998--6496726419109389585-11-0.0" type="actor-car--3057615833987552606" depart="0.00" departLane="0" departPos="random" departSpeed="max" arrivalLane="0" arrivalPos="random">
        <route edges="edge-east-EW edge-north-SN"/>
    </vehicle>
    <vehicle id="-flow-route-edge-east-EW_0_random-edge-south-NS_0_random--5809210701511245097--6496726419109389585-7-0.0" type="actor-car--3057615833987552606" depart="0.00" departLane="0" departPos="random" departSpeed="max" arrivalLane="0" arrivalPos="random">
        <route edges="edge-east-EW edge-south-NS"/>
    </vehicle>
    <vehicle id="-flow-route-edge-east-EW_0_random-edge-west-EW_0_random--6863275730040240291--6496726419109389585-3-0.0" type="actor-car--3057615833987552606" depart="0.00" departLane="0" departPos="random" departSpeed="max" arrivalLane="0" arrivalPos="random">
        <route edges="edge-east-EW edge-west-EW"/>
    </vehicle>
    <vehicle id="-flow-route-edge-north-NS_0_random-edge-east-WE_0_random-7807860355052586805--6496726419109389585-6-0.0" type="actor-car--3057615833987552606" depart="0.00" departLane="0" departPos="random" departSpeed="max" arrivalLane="0" arrivalPos="random">
        <route edges="edge-north-NS edge-east-WE"/>
    </vehicle>
    <vehicle id="-flow-route-edge-north-NS_0_random-edge-south-NS_0_random-3719527930360223263--6496726419109389585-0-0.0" type="actor-car--3057615833987552606" depart="0.00" departLane="0" departPos="random" departSpeed="max" arrivalLane="0" arrivalPos="random">
        <route edges="edge-north-NS edge-south-NS"/>
    </vehicle>
    <vehicle id="-flow-route-edge-north-NS_0_random-edge-west-EW_0_random-8825052936513299765--6496726419109389585-10-0.0" type="actor-car--3057615833987552606" depart="0.00" departLane="0" departPos="random" departSpeed="max" arrivalLane="0" arrivalPos="random">
        <route edges="edge-north-NS edge-west-EW"/>
    </vehicle>
    <vehicle id="-flow-route-edge-south-SN_0_random-edge-east-WE_0_random--8937022604851235550--6496726419109389585-8-0.0" type="actor-car--3057615833987552606" depart="0.00" departLane="0" departPos="random" departSpeed="max" arrivalLane="0" arrivalPos="random">
        <route edges="edge-south-SN edge-east-WE"/>
    </vehicle>
    <vehicle id="-flow-route-edge-south-SN_0_random-edge-north-SN_0_random-7020882187756247989--6496726419109389585-1-0.0" type="actor-car--3057615833987552606" depart="0.00" departLane="0" departPos="random" departSpeed="max" arrivalLane="0" arrivalPos="random">
        <route edges="edge-south-SN edge-north-SN"/>
    </vehicle>
    <vehicle id="-flow-route-edge-south-SN_0_random-edge-west-EW_0_random-8425639322766045986--6496726419109389585-4-0.0" type="actor-car--3057615833987552606" depart="0.00" departLane="0" departPos="random" departSpeed="max" arrivalLane="0" arrivalPos="random">
        <route edges="edge-south-SN edge-west-EW"/>
    </vehicle>
    <vehicle id="-flow-route-edge-west-WE_0_random-edge-east-WE_0_random-8646821632453705095--6496726419109389585-2-0.0" type="actor-car--3057615833987552606" depart="0.00" departLane="0" departPos="random" departSpeed="max" arrivalLane="0" arrivalPos="random">
        <route edges="edge-west-WE edge-east-WE"/>
    </vehicle>
    <vehicle id="-flow-route-edge-west-WE_0_random-edge-north-SN_0_random--1269046829470798000--6496726419109389585-5-0.0" type="actor-car--3057615833987552606" depart="0.00" departLane="0" departPos="random" departSpeed="max" arrivalLane="0" arrivalPos="random">
        <route edges="edge-west-WE edge-north-SN"/>
    </vehicle>
    <vehicle id="-flow-route-edge-west-WE_0_random-edge-south-NS_0_random--1497556647766950643--6496726419109389585-9-0.0" type="actor-car--3057615833987552606" depart="0.00" departLane="0" departPos="random" departSpeed="max" arrivalLane="0" arrivalPos="random">
        <route edges="edge-west-WE edge-south-NS"/>
    </vehicle>
</routes>
