<?xml version="1.0" encoding="UTF-8"?>

<!-- generated on Fri Sep  4 01:13:07 2020 by Eclipse SUMO duarouter Version 1.6.0
<configuration xmlns:xsi="http://www.w3.org/2001/XMLSchema-instance" xsi:noNamespaceSchemaLocation="http://sumo.dlr.de/xsd/duarouterConfiguration.xsd">

    <input>
        <net-file value="/home/lintao/projects/DAI2020_SMARTS_Competition_Track-2-master/dataset_public/crossroads/4lane/map.net.xml"/>
        <route-files value="/tmp/tmpecwj8l99/trips.trips.xml"/>
    </input>

    <output>
        <output-file value="/home/lintao/projects/DAI2020_SMARTS_Competition_Track-2-master/dataset_public/crossroads/4lane/traffic/horizontal.rou.xml"/>
        <alternatives-output value="/home/lintao/projects/DAI2020_SMARTS_Competition_Track-2-master/dataset_public/crossroads/4lane/traffic/horizontal.rou.alt.xml"/>
    </output>

    <processing>
        <unsorted-input value="true"/>
        <repair value="true"/>
    </processing>

    <report>
        <error-log value="/tmp/smarts/_duarouter_routing/traffic/horizontal.log"/>
        <no-step-log value="true"/>
    </report>

    <random_number>
        <seed value="42"/>
    </random_number>

</configuration>
-->

<routes xmlns:xsi="http://www.w3.org/2001/XMLSchema-instance" xsi:noNamespaceSchemaLocation="http://sumo.dlr.de/xsd/routes_file.xsd">
    <vType id="actor-car--3057615833987552606" minGap="2.50" speedFactor="normc(0.50,0.20,0.20,2.00)" vClass="passenger" impatience="0.50" lcCooperative="0.5" lcImpatience="0" jmDriveAfterYellowTime="1.0" accel="2.6" decel="4.5" sigma="0.5"/>
    <vehicle id="-flow-route-edge-east-EW_0_random-edge-west-EW_0_random--6863275730040240291--6496726419109389585-1-0.0" type="actor-car--3057615833987552606" depart="0.00" departLane="0" departPos="random" departSpeed="max" arrivalLane="0" arrivalPos="random">
        <route edges="edge-east-EW edge-west-EW"/>
    </vehicle>
    <vehicle id="-flow-route-edge-west-WE_0_random-edge-east-WE_0_random-8646821632453705095--6496726419109389585-0-0.0" type="actor-car--3057615833987552606" depart="0.00" departLane="0" departPos="random" departSpeed="max" arrivalLane="0" arrivalPos="random">
        <route edges="edge-west-WE edge-east-WE"/>
    </vehicle>
</routes>
