<?xml version="1.0" encoding="UTF-8"?>

<!-- generated on Fri 31 Jul 2020 05:35:40 PM CST by Eclipse SUMO netedit Version 1.6.0
<configuration xmlns:xsi="http://www.w3.org/2001/XMLSchema-instance" xsi:noNamespaceSchemaLocation="http://sumo.dlr.de/xsd/netconvertConfiguration.xsd">

    <input>
        <sumo-net-file value="/home/ming/Projects/Gitlab/smarts/dai/track2/dataset_public/merge/2way_1lane/map.net.xml"/>
    </input>

    <output>
        <output-file value="/home/ming/Projects/Gitlab/smarts/dai/track2/dataset_public/merge/2way_1lane/map.net.xml"/>
    </output>

    <processing>
        <geometry.min-radius.fix.railways value="false"/>
        <geometry.max-grade.fix value="false"/>
        <offset.disable-normalization value="true"/>
        <lefthand value="false"/>
    </processing>

    <junctions>
        <no-turnarounds value="true"/>
        <junctions.corner-detail value="5"/>
        <junctions.limit-turn-speed value="5.5"/>
        <rectangular-lane-cut value="false"/>
    </junctions>

    <pedestrian>
        <walkingareas value="false"/>
    </pedestrian>

    <report>
        <aggregate-warnings value="5"/>
    </report>

</configuration>
-->

<net version="1.6" junctionCornerDetail="5" limitTurnSpeed="5.50" xmlns:xsi="http://www.w3.org/2001/XMLSchema-instance" xsi:noNamespaceSchemaLocation="http://sumo.dlr.de/xsd/net_file.xsd">

    <location netOffset="0.00,0.00" convBoundary="-39.83,-10.24,167.03,119.36" origBoundary="-10000000000.00,-10000000000.00,10000000000.00,10000000000.00" projParameter="!"/>

    <edge id=":gneJ0_0" function="internal">
        <lane id=":gneJ0_0_0" index="0" speed="11.60" length="3.67" shape="5.89,55.29 4.81,55.30 4.06,55.39 3.34,55.61 2.34,56.03"/>
    </edge>
    <edge id=":gneJ0_1" function="internal">
        <lane id=":gneJ0_1_0" index="0" speed="11.02" length="3.67" shape="2.37,51.31 3.35,51.75 4.07,51.99 4.81,52.08 5.90,52.09"/>
    </edge>
    <edge id=":gneJ1_0" function="internal">
        <lane id=":gneJ1_0_0" index="0" speed="8.49" length="3.88" shape="120.61,56.53 119.64,55.92 118.91,55.60 118.12,55.47 116.98,55.45"/>
    </edge>
    <edge id=":gneJ1_1" function="internal">
        <lane id=":gneJ1_1_0" index="0" speed="10.09" length="3.90" shape="116.98,52.25 118.14,52.24 118.93,52.14 119.69,51.88 120.72,51.37"/>
    </edge>

    <edge id="-merged" from="gneJ1" to="gneJ0" priority="-1">
        <lane id="-merged_0" index="0" speed="15.00" length="111.08" shape="116.98,55.45 5.89,55.29"/>
    </edge>
    <edge id="left_bottom" from="gneJ11" to="gneJ0" priority="-1" shape="-39.83,-6.70 -16.64,37.18 -13.67,41.81 -10.80,44.87 -7.62,47.69 -3.23,50.47 3.69,53.69">
        <lane id="left_bottom_0" index="0" speed="15.00" length="73.16" shape="-38.42,-7.45 -15.26,36.37 -12.40,40.82 -9.68,43.72 -6.65,46.41 -2.46,49.06 2.37,51.31"/>
    </edge>
    <edge id="left_top" from="gneJ0" to="gneJ10" priority="-1" shape="3.69,53.69 -3.54,56.88 -7.68,59.88 -10.91,62.93 -13.46,66.37 -15.59,69.96 -17.80,74.23 -38.41,119.36">
        <lane id="left_top_0" index="0" speed="15.00" length="76.99" shape="2.34,56.03 -2.74,58.28 -6.66,61.11 -9.71,64.00 -12.13,67.26 -14.19,70.74 -16.36,74.93 -36.95,120.02"/>
    </edge>
    <edge id="merged" from="gneJ0" to="gneJ1" priority="-1">
        <lane id="merged_0" index="0" speed="15.00" length="111.08" shape="5.90,52.09 116.98,52.25"/>
    </edge>
    <edge id="right_bottom" from="gneJ1" to="gneJ12" priority="-1" shape="119.43,53.85 126.87,49.97 130.50,47.23 134.06,43.79 137.86,39.95 141.01,36.09 144.73,30.81 167.03,-10.24">
        <lane id="right_bottom_0" index="0" speed="15.00" length="78.21" shape="120.72,51.37 126.01,48.61 129.46,46.01 132.94,42.65 136.67,38.88 139.73,35.12 143.37,29.96 165.62,-11.00"/>
    </edge>
    <edge id="right_top" from="gneJ13" to="gneJ1" priority="-1" shape="153.00,115.88 139.51,75.72 137.87,71.67 135.62,67.79 133.32,64.80 130.29,61.71 126.88,58.72 119.43,53.85">
        <lane id="right_top_0" index="0" speed="15.00" length="69.24" shape="151.48,116.39 138.01,76.28 136.43,72.38 134.29,68.68 132.11,65.85 129.19,62.87 125.91,60.00 120.61,56.53"/>
    </edge>

    <junction id="gneJ0" type="priority" x="3.69" y="53.69" incLanes="-merged_0 left_bottom_0" intLanes=":gneJ0_0_0 :gneJ0_1_0" shape="5.89,56.89 5.90,50.49 4.80,50.46 4.42,50.41 4.05,50.30 3.61,50.12 3.04,49.86 1.69,52.76 2.58,53.37 2.69,53.68 2.58,53.98 2.25,54.27 1.70,54.57 2.99,57.50 4.02,57.07 4.39,56.97 4.78,56.92 5.26,56.90">
        <request index="0" response="00" foes="00" cont="0"/>
        <request index="1" response="00" foes="00" cont="0"/>
    </junction>
    <junction id="gneJ1" type="priority" x="119.43" y="53.85" incLanes="right_top_0 merged_0" intLanes=":gneJ1_0_0 :gneJ1_1_0" shape="119.73,57.87 121.48,55.19 120.57,54.33 120.45,53.92 120.56,53.53 120.89,53.15 121.46,52.79 119.98,49.96 118.94,50.45 118.55,50.57 118.14,50.63 117.64,50.65 116.98,50.65 116.97,57.05 118.06,57.09 118.44,57.16 118.80,57.31 119.21,57.54">
        <request index="0" response="00" foes="00" cont="0"/>
        <request index="1" response="00" foes="00" cont="0"/>
    </junction>
    <junction id="gneJ10" type="dead_end" x="-38.41" y="119.36" incLanes="left_top_0" intLanes="" shape="-35.50,120.69 -38.41,119.36"/>
    <junction id="gneJ11" type="dead_end" x="-39.83" y="-6.70" incLanes="" intLanes="" shape="-39.83,-6.70 -37.00,-8.20"/>
    <junction id="gneJ12" type="dead_end" x="167.03" y="-10.24" incLanes="right_bottom_0" intLanes="" shape="164.22,-11.77 167.03,-10.24"/>
    <junction id="gneJ13" type="dead_end" x="153.00" y="115.88" incLanes="" intLanes="" shape="153.00,115.88 149.97,116.90"/>

    <connection from="-merged" to="left_top" fromLane="0" toLane="0" via=":gneJ0_0_0" dir="s" state="M"/>
    <connection from="left_bottom" to="merged" fromLane="0" toLane="0" via=":gneJ0_1_0" dir="s" state="M"/>
    <connection from="merged" to="right_bottom" fromLane="0" toLane="0" via=":gneJ1_1_0" dir="s" state="M"/>
    <connection from="right_top" to="-merged" fromLane="0" toLane="0" via=":gneJ1_0_0" dir="s" state="M"/>

    <connection from=":gneJ0_0" to="left_top" fromLane="0" toLane="0" dir="s" state="M"/>
    <connection from=":gneJ0_1" to="merged" fromLane="0" toLane="0" dir="s" state="M"/>
    <connection from=":gneJ1_0" to="-merged" fromLane="0" toLane="0" dir="s" state="M"/>
    <connection from=":gneJ1_1" to="right_bottom" fromLane="0" toLane="0" dir="s" state="M"/>

</net>
