<?xml version="1.0" encoding="UTF-8"?>

<!-- generated on Fri 31 Jul 2020 05:47:00 PM CST by Eclipse SUMO netedit Version 1.6.0
<configuration xmlns:xsi="http://www.w3.org/2001/XMLSchema-instance" xsi:noNamespaceSchemaLocation="http://sumo.dlr.de/xsd/netconvertConfiguration.xsd">

    <input>
        <sumo-net-file value="/home/ming/Projects/Gitlab/smarts/dai/track2/dataset_public/ramp/1lane_on/map.net.xml"/>
    </input>

    <output>
        <output-file value="/home/ming/Projects/Gitlab/smarts/dai/track2/dataset_public/ramp/1lane_on/map.net.xml"/>
    </output>

    <processing>
        <geometry.min-radius.fix.railways value="false"/>
        <geometry.max-grade.fix value="false"/>
        <offset.disable-normalization value="true"/>
        <lefthand value="false"/>
    </processing>

    <junctions>
        <no-turnarounds value="true"/>
        <junctions.corner-detail value="5"/>
        <junctions.limit-turn-speed value="5.5"/>
        <rectangular-lane-cut value="false"/>
    </junctions>

    <pedestrian>
        <walkingareas value="false"/>
    </pedestrian>

    <report>
        <aggregate-warnings value="5"/>
    </report>

</configuration>
-->

<net version="1.6" junctionCornerDetail="5" limitTurnSpeed="5.50" xmlns:xsi="http://www.w3.org/2001/XMLSchema-instance" xsi:noNamespaceSchemaLocation="http://sumo.dlr.de/xsd/net_file.xsd">

    <location netOffset="0.00,0.00" convBoundary="-43.30,42.51,154.75,64.67" origBoundary="-10000000000.00,-10000000000.00,10000000000.00,10000000000.00" projParameter="!"/>

    <edge id=":gneJ1_0" function="internal">
        <lane id=":gneJ1_0_0" index="0" speed="15.00" length="17.28" shape="38.66,59.57 42.65,60.59 47.06,61.74 51.49,62.68 55.55,63.07"/>
    </edge>
    <edge id=":gneJ1_1" function="internal">
        <lane id=":gneJ1_1_0" index="0" speed="15.00" length="17.29" shape="38.27,63.07 55.55,63.07"/>
    </edge>

    <edge id="left_in" from="gneJ0" to="gneJ1" priority="-1">
        <lane id="left_in_0" index="0" speed="15.00" length="81.57" shape="-43.30,63.07 38.27,63.07"/>
    </edge>
    <edge id="merged" from="gneJ1" to="gneJ2" priority="-1">
        <lane id="merged_0" index="0" speed="15.00" length="99.20" shape="55.55,63.07 154.75,63.07"/>
    </edge>
    <edge id="ramp_in" from="gneJ3" to="gneJ1" priority="-1">
        <lane id="ramp_in_0" index="0" speed="15.00" length="83.16" shape="-42.38,40.95 38.66,59.57"/>
    </edge>

    <junction id="gneJ0" type="dead_end" x="-43.30" y="64.67" incLanes="" intLanes="" shape="-43.30,64.67 -43.30,61.47"/>
    <junction id="gneJ1" type="priority" x="53.69" y="64.67" incLanes="ramp_in_0 left_in_0" intLanes=":gneJ1_0_0 :gneJ1_1_0" shape="55.55,64.67 55.55,61.47 51.97,61.35 49.34,60.99 47.21,60.45 45.09,59.75 42.52,58.93 39.02,58.02 38.30,61.13 38.27,61.47 38.27,64.67">
        <request index="0" response="00" foes="10" cont="0"/>
        <request index="1" response="01" foes="01" cont="0"/>
    </junction>
    <junction id="gneJ2" type="dead_end" x="154.75" y="64.67" incLanes="merged_0" intLanes="" shape="154.75,61.47 154.75,64.67"/>
    <junction id="gneJ3" type="dead_end" x="-42.74" y="42.51" incLanes="" intLanes="" shape="-42.74,42.51 -42.02,39.39"/>

    <connection from="left_in" to="merged" fromLane="0" toLane="0" via=":gneJ1_1_0" dir="s" state="m"/>
    <connection from="ramp_in" to="merged" fromLane="0" toLane="0" via=":gneJ1_0_0" dir="s" state="M"/>

    <connection from=":gneJ1_0" to="merged" fromLane="0" toLane="0" dir="s" state="M"/>
    <connection from=":gneJ1_1" to="merged" fromLane="0" toLane="0" dir="s" state="M"/>

</net>
